Version 4
SHEET 1 880 680
WIRE -160 -128 -288 -128
WIRE 16 -128 -160 -128
WIRE 112 -128 16 -128
WIRE 320 -128 112 -128
WIRE 448 -128 416 -128
WIRE 528 -128 448 -128
WIRE 688 -128 624 -128
WIRE 224 -48 112 -48
WIRE 448 -32 448 -128
WIRE 688 -32 688 -128
WIRE 224 -16 224 -48
WIRE 16 0 16 -128
WIRE 400 48 400 -80
WIRE 432 48 400 48
WIRE 448 48 432 48
WIRE 544 48 544 -80
WIRE 544 48 448 48
WIRE -160 80 -160 -128
WIRE 400 96 400 48
WIRE 112 112 112 -48
WIRE 16 144 16 80
WIRE -288 144 -288 -128
WIRE 80 144 16 144
WIRE 224 144 224 64
WIRE 336 144 224 144
WIRE 224 176 224 144
WIRE 352 176 352 144
WIRE 16 192 16 144
WIRE -288 288 -288 224
WIRE -160 288 -160 144
WIRE -160 288 -288 288
WIRE 16 288 16 272
WIRE 16 288 -160 288
WIRE 112 288 112 176
WIRE 112 288 16 288
WIRE 224 288 224 256
WIRE 224 288 112 288
WIRE 400 288 400 192
WIRE 400 288 224 288
WIRE 688 288 688 48
WIRE 688 288 400 288
FLAG 432 48 COLL
FLAG 400 288 0
SYMBOL voltage -288 128 R0
WINDOW 123 0 0 Left 0
WINDOW 39 0 0 Left 0
SYMATTR InstName V1
SYMATTR Value 10
SYMBOL res 432 -48 R0
SYMATTR InstName R3
SYMATTR Value 100K
SYMBOL pmos 320 -80 R270
SYMATTR InstName M1
SYMATTR Value FDS6875
SYMBOL res 672 -48 R0
SYMATTR InstName R4
SYMATTR Value 100
SYMBOL cap -176 80 R0
SYMATTR InstName C1
SYMATTR Value 100n
SYMBOL npn 336 96 R0
SYMATTR InstName Q1
SYMATTR Value BC847B
SYMBOL Parts_TCO\\TLV431 112 144 M0
SYMATTR InstName U1
SYMBOL res 0 -16 R0
SYMATTR InstName R6
SYMATTR Value 33K
SYMBOL res 0 176 R0
SYMATTR InstName R7
SYMATTR Value 10K
SYMBOL res 96 -144 R0
SYMATTR InstName R8
SYMATTR Value 10K
SYMBOL res 208 -32 R0
SYMATTR InstName R1
SYMATTR Value 100K
SYMBOL res 208 160 R0
SYMATTR InstName R2
SYMATTR Value 33K
SYMBOL pmos 624 -80 M270
SYMATTR InstName M2
SYMATTR Value FDS6875
TEXT -320 296 Left 2 !;op
TEXT 168 352 Left 2 !.tran 0 0.1 0 uic
TEXT 176 376 Left 2 ;.dc v1 0 30 0.1
